#======================================================================

# CRYSTAL DATA

#----------------------------------------------------------------------

data_VESTA_phase_1


_chemical_name_common                  ''
_cell_length_a                         15.34300
_cell_length_b                         15.34300
_cell_length_c                         20.00000
_cell_angle_alpha                      90
_cell_angle_beta                       90
_cell_angle_gamma                      90
_space_group_name_H-M_alt              'P 1'
_space_group_IT_number                 1

loop_
_space_group_symop_operation_xyz
   'x, y, z'

loop_
   _atom_site_label
   _atom_site_occupancy
   _atom_site_fract_x
   _atom_site_fract_y
   _atom_site_fract_z
   _atom_site_adp_type
   _atom_site_B_iso_or_equiv
   _atom_site_type_symbol
   O          1.0     0.106765      0.178220      0.197838     Biso  1.000000 O
   O          1.0    -0.106610     -0.069133      0.197738     Biso  1.000000 O
   O          1.0     0.141035     -0.072245      0.198480     Biso  1.000000 O
   O          1.0    -0.140167      0.180063      0.199298     Biso  1.000000 O
   O          1.0     0.138147      0.421439      0.199080     Biso  1.000000 O
   O          1.0    -0.108139     -0.331155      0.201206     Biso  1.000000 O
   O          1.0     0.138860     -0.329082      0.199919     Biso  1.000000 O
   O          1.0    -0.099960      0.419437      0.202025     Biso  1.000000 O
   O          1.0     0.350001      0.176336      0.198798     Biso  1.000000 O
   O          1.0    -0.352380     -0.075700      0.201844     Biso  1.000000 O
   O          1.0     0.391731     -0.072598      0.199770     Biso  1.000000 O
   O          1.0    -0.452534      0.231929      0.201883     Biso  1.000000 O
   O          1.0     0.379951      0.408742      0.202790     Biso  1.000000 O
   O          1.0    -0.360009     -0.372280      0.208056     Biso  1.000000 O
   O          1.0     0.386334     -0.340405      0.202812     Biso  1.000000 O
   CE         1.0     0.001060      0.128606      0.151300     Biso  1.000000 Ce
   CE         1.0     0.001005     -0.119929      0.152347     Biso  1.000000 Ce
   CE         1.0     0.006201      0.377018      0.152879     Biso  1.000000 Ce
   CE         1.0     0.000813     -0.372195      0.153784     Biso  1.000000 Ce
   CE         1.0     0.244877      0.128558      0.151362     Biso  1.000000 Ce
   CE         1.0    -0.247345     -0.118753      0.152791     Biso  1.000000 Ce
   CE         1.0     0.249261     -0.119855      0.152446     Biso  1.000000 Ce
   CE         1.0    -0.240742      0.127096      0.149406     Biso  1.000000 Ce
   CE         1.0     0.248436      0.376257      0.152538     Biso  1.000000 Ce
   CE         1.0    -0.248934     -0.372800      0.153101     Biso  1.000000 Ce
   CE         1.0     0.249420     -0.372091      0.153638     Biso  1.000000 Ce
   CE         1.0    -0.233905      0.372946      0.152649     Biso  1.000000 Ce
   CE         1.0     0.487802      0.134243      0.153639     Biso  1.000000 Ce
   CE         1.0     0.498899     -0.117311      0.152323     Biso  1.000000 Ce
   CE         1.0     0.488070      0.367807      0.151911     Biso  1.000000 Ce
   CE         1.0     0.498216     -0.373691      0.153323     Biso  1.000000 Ce
   O          1.0     0.124662      0.121531      0.080298     Biso  1.000000 O
   O          1.0    -0.123523     -0.127757      0.080906     Biso  1.000000 O
   O          1.0     0.125567     -0.127953      0.081073     Biso  1.000000 O
   O          1.0    -0.122506      0.120921      0.081683     Biso  1.000000 O
   O          1.0     0.124507      0.372293      0.079284     Biso  1.000000 O
   O          1.0    -0.124345     -0.376972      0.080593     Biso  1.000000 O
   O          1.0     0.126153     -0.376957      0.080172     Biso  1.000000 O
   O          1.0    -0.122740      0.371796      0.080333     Biso  1.000000 O
   O          1.0     0.370666      0.121859      0.080996     Biso  1.000000 O
   O          1.0    -0.375317     -0.124687      0.082121     Biso  1.000000 O
   O          1.0     0.375725     -0.126637      0.081502     Biso  1.000000 O
   O          1.0    -0.373036      0.124281      0.097929     Biso  1.000000 O
   O          1.0     0.370159      0.371999      0.080463     Biso  1.000000 O
   O          1.0    -0.375696     -0.373134      0.082406     Biso  1.000000 O
   O          1.0     0.375605     -0.376088      0.080131     Biso  1.000000 O
   O          1.0    -0.377240      0.375341      0.102468     Biso  1.000000 O
   O          1.0     0.003200     -0.000170      0.094180     Biso  1.000000 O
   O          1.0    -0.000795      0.248388      0.093633     Biso  1.000000 O
   O          1.0     0.001502     -0.249338      0.097335     Biso  1.000000 O
   O          1.0     0.002631     -0.499349      0.096042     Biso  1.000000 O
   O          1.0     0.250616     -0.000771      0.094648     Biso  1.000000 O
   O          1.0    -0.245550      0.001209      0.093919     Biso  1.000000 O
   O          1.0     0.245207      0.249223      0.093411     Biso  1.000000 O
   O          1.0    -0.250308     -0.248244      0.100051     Biso  1.000000 O
   O          1.0     0.251965     -0.248777      0.097795     Biso  1.000000 O
   O          1.0    -0.245935      0.247748      0.094190     Biso  1.000000 O
   O          1.0     0.250912     -0.499580      0.097191     Biso  1.000000 O
   O          1.0    -0.246628      0.499654      0.100754     Biso  1.000000 O
   O          1.0    -0.499541      0.002831      0.095226     Biso  1.000000 O
   O          1.0     0.488273      0.249125      0.085648     Biso  1.000000 O
   O          1.0    -0.498974     -0.247659      0.101200     Biso  1.000000 O
   O          1.0     0.497221      0.498506      0.100768     Biso  1.000000 O
   CE         1.0     0.125333     -0.000613      0.020936     Biso  1.000000 Ce
   CE         1.0    -0.123349     -0.001169      0.020427     Biso  1.000000 Ce
   CE         1.0     0.124487      0.250042      0.020455     Biso  1.000000 Ce
   CE         1.0    -0.124459     -0.250266      0.022658     Biso  1.000000 Ce
   CE         1.0     0.125053     -0.250168      0.022514     Biso  1.000000 Ce
   CE         1.0    -0.122861      0.249954      0.019626     Biso  1.000000 Ce
   CE         1.0     0.125290     -0.499307      0.021979     Biso  1.000000 Ce
   CE         1.0    -0.123426     -0.499636      0.022302     Biso  1.000000 Ce
   CE         1.0     0.374450      0.000494      0.021599     Biso  1.000000 Ce
   CE         1.0    -0.375205      0.002503      0.024274     Biso  1.000000 Ce
   CE         1.0     0.371676      0.249416      0.018893     Biso  1.000000 Ce
   CE         1.0    -0.375178     -0.249170      0.023305     Biso  1.000000 Ce
   CE         1.0     0.374793     -0.249567      0.022841     Biso  1.000000 Ce
   CE         1.0    -0.375688      0.251010      0.026189     Biso  1.000000 Ce
   CE         1.0     0.374130     -0.499910      0.022488     Biso  1.000000 Ce
   CE         1.0    -0.375169      0.498237      0.026728     Biso  1.000000 Ce
   O          1.0     0.000511     -0.000934     -0.039687     Biso  1.000000 O
   O          1.0     0.000497      0.249973     -0.040414     Biso  1.000000 O
   O          1.0    -0.000051     -0.249955     -0.038090     Biso  1.000000 O
   O          1.0     0.000375     -0.499393     -0.038773     Biso  1.000000 O
   O          1.0     0.249737     -0.000567     -0.039377     Biso  1.000000 O
   O          1.0    -0.249794     -0.000198     -0.038494     Biso  1.000000 O
   O          1.0     0.247810      0.249645     -0.040906     Biso  1.000000 O
   O          1.0    -0.249889     -0.249579     -0.036999     Biso  1.000000 O
   O          1.0     0.250263     -0.249794     -0.037928     Biso  1.000000 O
   O          1.0    -0.248186      0.249867     -0.039629     Biso  1.000000 O
   O          1.0     0.249847     -0.499175     -0.038465     Biso  1.000000 O
   O          1.0    -0.248856     -0.499822     -0.036828     Biso  1.000000 O
   O          1.0    -0.499580      0.000034     -0.038213     Biso  1.000000 O
   O          1.0     0.498011      0.249787     -0.042582     Biso  1.000000 O
   O          1.0    -0.499858     -0.249380     -0.036841     Biso  1.000000 O
   O          1.0     0.499016     -0.499715     -0.036855     Biso  1.000000 O
   O          1.0     0.124561      0.123912     -0.048213     Biso  1.000000 O
   O          1.0    -0.124704     -0.125456     -0.047759     Biso  1.000000 O
   O          1.0     0.125095     -0.125831     -0.047835     Biso  1.000000 O
   O          1.0    -0.124309      0.123823     -0.047501     Biso  1.000000 O
   O          1.0     0.124870      0.375615     -0.048528     Biso  1.000000 O
   O          1.0    -0.124654     -0.374590     -0.047591     Biso  1.000000 O
   O          1.0     0.124964     -0.374491     -0.048063     Biso  1.000000 O
   O          1.0    -0.124263      0.375508     -0.047947     Biso  1.000000 O
   O          1.0     0.373979      0.123601     -0.048217     Biso  1.000000 O
   O          1.0    -0.374966     -0.123941     -0.046608     Biso  1.000000 O
   O          1.0     0.374986     -0.125069     -0.047496     Biso  1.000000 O
   O          1.0    -0.374849      0.123470     -0.041938     Biso  1.000000 O
   O          1.0     0.373922      0.375694     -0.048155     Biso  1.000000 O
   O          1.0    -0.374923     -0.374286     -0.046909     Biso  1.000000 O
   O          1.0     0.374849     -0.374320     -0.047837     Biso  1.000000 O
   O          1.0    -0.374848      0.375895     -0.041660     Biso  1.000000 O
   CE         1.0     0.000114      0.124588     -0.109425     Biso  1.000000 Ce
   CE         1.0     0.000166     -0.125661     -0.108849     Biso  1.000000 Ce
   CE         1.0     0.000080      0.375686     -0.109159     Biso  1.000000 Ce
   CE         1.0    -0.000057     -0.374819     -0.108527     Biso  1.000000 Ce
   CE         1.0     0.249639      0.124470     -0.109482     Biso  1.000000 Ce
   CE         1.0    -0.250554     -0.124901     -0.108075     Biso  1.000000 Ce
   CE         1.0     0.250295     -0.125480     -0.108540     Biso  1.000000 Ce
   CE         1.0    -0.250772      0.125473     -0.107620     Biso  1.000000 Ce
   CE         1.0     0.249743      0.375723     -0.109234     Biso  1.000000 Ce
   CE         1.0    -0.250651     -0.375445     -0.107436     Biso  1.000000 Ce
   CE         1.0     0.250309     -0.374769     -0.108384     Biso  1.000000 Ce
   CE         1.0    -0.250874      0.375087     -0.107166     Biso  1.000000 Ce
   CE         1.0    -0.499472      0.125670     -0.107820     Biso  1.000000 Ce
   CE         1.0    -0.499617     -0.124703     -0.107909     Biso  1.000000 Ce
   CE         1.0    -0.499416      0.374952     -0.107346     Biso  1.000000 Ce
   CE         1.0    -0.499373     -0.375424     -0.107442     Biso  1.000000 Ce
   O          1.0     0.124817      0.124848     -0.181048     Biso  1.000000 O
   O          1.0    -0.124854     -0.125007     -0.180707     Biso  1.000000 O
   O          1.0     0.124950     -0.125118     -0.180752     Biso  1.000000 O
   O          1.0    -0.124988      0.124924     -0.180594     Biso  1.000000 O
   O          1.0     0.124929      0.375074     -0.181147     Biso  1.000000 O
   O          1.0    -0.124821     -0.375008     -0.180604     Biso  1.000000 O
   O          1.0     0.124854     -0.374964     -0.180842     Biso  1.000000 O
   O          1.0    -0.125060      0.374989     -0.180753     Biso  1.000000 O
   O          1.0     0.374786      0.124965     -0.180931     Biso  1.000000 O
   O          1.0    -0.374956     -0.124887     -0.180407     Biso  1.000000 O
   O          1.0     0.374865     -0.125369     -0.180539     Biso  1.000000 O
   O          1.0    -0.374736      0.125160     -0.179014     Biso  1.000000 O
   O          1.0     0.374709      0.375516     -0.180813     Biso  1.000000 O
   O          1.0    -0.374959     -0.375183     -0.180500     Biso  1.000000 O
   O          1.0     0.374764     -0.375001     -0.180707     Biso  1.000000 O
   O          1.0    -0.374954      0.374731     -0.178765     Biso  1.000000 O
   O          1.0     0.000000      0.000000     -0.169518     Biso  1.000000 O
   O          1.0     0.000000      0.250000     -0.169518     Biso  1.000000 O
   O          1.0     0.000000     -0.250000     -0.169518     Biso  1.000000 O
   O          1.0     0.000000     -0.500000     -0.169518     Biso  1.000000 O
   O          1.0     0.250000      0.000000     -0.169518     Biso  1.000000 O
   O          1.0    -0.250000      0.000000     -0.169518     Biso  1.000000 O
   O          1.0     0.250000      0.250000     -0.169518     Biso  1.000000 O
   O          1.0    -0.250000     -0.250000     -0.169518     Biso  1.000000 O
   O          1.0     0.250000     -0.250000     -0.169518     Biso  1.000000 O
   O          1.0    -0.250000      0.250000     -0.169518     Biso  1.000000 O
   O          1.0     0.250000     -0.500000     -0.169518     Biso  1.000000 O
   O          1.0    -0.250000     -0.500000     -0.169518     Biso  1.000000 O
   O          1.0    -0.500000      0.000000     -0.169518     Biso  1.000000 O
   O          1.0    -0.500000      0.250000     -0.169518     Biso  1.000000 O
   O          1.0    -0.500000     -0.250000     -0.169518     Biso  1.000000 O
   O          1.0    -0.500000     -0.500000     -0.169518     Biso  1.000000 O
   CE         1.0     0.125000      0.000000     -0.237325     Biso  1.000000 Ce
   CE         1.0    -0.125000      0.000000     -0.237325     Biso  1.000000 Ce
   CE         1.0     0.125000      0.250000     -0.237325     Biso  1.000000 Ce
   CE         1.0    -0.125000     -0.250000     -0.237325     Biso  1.000000 Ce
   CE         1.0     0.125000     -0.250000     -0.237325     Biso  1.000000 Ce
   CE         1.0    -0.125000      0.250000     -0.237325     Biso  1.000000 Ce
   CE         1.0     0.125000     -0.500000     -0.237325     Biso  1.000000 Ce
   CE         1.0    -0.125000     -0.500000     -0.237325     Biso  1.000000 Ce
   CE         1.0     0.375000      0.000000     -0.237325     Biso  1.000000 Ce
   CE         1.0    -0.375000      0.000000     -0.237325     Biso  1.000000 Ce
   CE         1.0     0.375000      0.250000     -0.237325     Biso  1.000000 Ce
   CE         1.0    -0.375000     -0.250000     -0.237325     Biso  1.000000 Ce
   CE         1.0     0.375000     -0.250000     -0.237325     Biso  1.000000 Ce
   CE         1.0    -0.375000      0.250000     -0.237325     Biso  1.000000 Ce
   CE         1.0     0.375000     -0.500000     -0.237325     Biso  1.000000 Ce
   CE         1.0    -0.375000     -0.500000     -0.237325     Biso  1.000000 Ce
   O          1.0     0.000000      0.000000     -0.305000     Biso  1.000000 O
   O          1.0     0.000000      0.250000     -0.305000     Biso  1.000000 O
   O          1.0     0.000000     -0.250000     -0.305000     Biso  1.000000 O
   O          1.0     0.000000     -0.500000     -0.305000     Biso  1.000000 O
   O          1.0     0.250000      0.000000     -0.305000     Biso  1.000000 O
   O          1.0    -0.250000      0.000000     -0.305000     Biso  1.000000 O
   O          1.0     0.250000      0.250000     -0.305000     Biso  1.000000 O
   O          1.0    -0.250000     -0.250000     -0.305000     Biso  1.000000 O
   O          1.0     0.250000     -0.250000     -0.305000     Biso  1.000000 O
   O          1.0    -0.250000      0.250000     -0.305000     Biso  1.000000 O
   O          1.0     0.250000     -0.500000     -0.305000     Biso  1.000000 O
   O          1.0    -0.250000     -0.500000     -0.305000     Biso  1.000000 O
   O          1.0    -0.500000      0.000000     -0.305000     Biso  1.000000 O
   O          1.0    -0.500000      0.250000     -0.305000     Biso  1.000000 O
   O          1.0    -0.500000     -0.250000     -0.305000     Biso  1.000000 O
   O          1.0    -0.500000     -0.500000     -0.305000     Biso  1.000000 O
   SI         1.0    -0.374344     -0.300540      0.277501     Biso  1.000000 Si
   O          1.0    -0.464880     -0.243187      0.258660     Biso  1.000000 O
   O          1.0    -0.367350     -0.330549      0.354368     Biso  1.000000 O
   O          1.0    -0.284550     -0.243981      0.255196     Biso  1.000000 O
   C          1.0     0.471246     -0.220401      0.311157     Biso  1.000000 C
   C          1.0    -0.217468     -0.220187      0.304879     Biso  1.000000 C
   C          1.0    -0.388855     -0.310385      0.421763     Biso  1.000000 C
   C          1.0     0.495591     -0.134232      0.343106     Biso  1.000000 C
   C          1.0    -0.246617     -0.141097      0.344169     Biso  1.000000 C
   C          1.0    -0.448246     -0.380753      0.449614     Biso  1.000000 C
   H          1.0     0.452053     -0.120989      0.385296     Biso  1.000000 H
   H          1.0    -0.193003     -0.116757      0.375032     Biso  1.000000 H
   H          1.0    -0.460227     -0.369241      0.502686     Biso  1.000000 H
   H          1.0    -0.437042     -0.133902      0.361153     Biso  1.000000 H
   H          1.0     0.487918     -0.080901      0.307462     Biso  1.000000 H
   H          1.0     0.469328     -0.274358      0.347115     Biso  1.000000 H
   H          1.0     0.408492     -0.218083      0.285629     Biso  1.000000 H
   H          1.0     0.489518     -0.381188      0.423174     Biso  1.000000 H
   H          1.0    -0.419020     -0.445573      0.443897     Biso  1.000000 H
   H          1.0    -0.327535     -0.307524      0.449994     Biso  1.000000 H
   H          1.0    -0.419200     -0.245660      0.424879     Biso  1.000000 H
   H          1.0    -0.205450     -0.277426      0.336125     Biso  1.000000 H
   H          1.0    -0.158712     -0.206221      0.275867     Biso  1.000000 H
   H          1.0    -0.301368     -0.156702      0.377055     Biso  1.000000 H
   H          1.0    -0.267518     -0.089270      0.310399     Biso  1.000000 H
   O          1.0     0.461746     -0.496110      0.225695     Biso  1.000000 O
   C          1.0     0.453997     -0.485058      0.295345     Biso  1.000000 C
   C          1.0     0.496665      0.439882      0.332566     Biso  1.000000 C
   H          1.0     0.464959      0.378619      0.318580     Biso  1.000000 H
   H          1.0     0.384421     -0.478597      0.308684     Biso  1.000000 H
   H          1.0     0.484938     -0.422756      0.310178     Biso  1.000000 H
   H          1.0    -0.434402      0.435173      0.319367     Biso  1.000000 H
   H          1.0     0.490485      0.447767      0.386855     Biso  1.000000 H
